/*--------------------------------*- C++ -*----------------------------------*\
| =========                 |                                                 |
| \\      /  F ield         | OpenFOAM: The Open Source CFD Toolbox           |
|  \\    /   O peration     | Version:  v2012                                 |
|   \\  /    A nd           | Website:  www.openfoam.com                      |
|    \\/     M anipulation  |                                                 |
\*---------------------------------------------------------------------------*/
FoamFile
{
    version     2.0;
    format      ascii;
    class       volScalarField;
    object      nut;
}
// * * * * * * * * * * * * * * * * * * * * * * * * * * * * * * * * * * * * * //

dimensions      [0 2 -1 0 0 0 0];

internalField   uniform 0.0269;

boundaryField
{
    AMI1
    {
        type            cyclicAMI;
        value           uniform 0.0269;
    }
	
    AMI2
    {
        type            cyclicAMI;
        value           uniform 0.0269;
    }
	
    wing
    {
        type            nutkWallFunction;
        value           uniform 0.0269;
    }
	
    wall1
    {
        type            fixedValue;
	value		uniform 0.0269;
    }
	
    wall2
    {
        type            zeroGradient;
    }
	
    wall3
    {
        type            slip;
    }
	
    wall4
    {
        type            slip;
    }
	
    wall5
    {
        type            slip;
    }
	
    wall6
    {
        type            slip;
    }
}

// ************************************************************************* //
