/*--------------------------------*- C++ -*----------------------------------*\
  =========                 |
  \\      /  F ield         | OpenFOAM: The Open Source CFD Toolbox
   \\    /   O peration     | Website:  https://openfoam.org
    \\  /    A nd           | Version:  9
     \\/     M anipulation  |
\*---------------------------------------------------------------------------*/
FoamFile
{
    format      ascii;
    class       dictionary;
    object      blockMeshDict;
}

// * * * * * * * * * * * * * * * * * * * * * * * * * * * * * * * * * * * * * //

convertToMeters 0.001;

vertices
(
    (-2000 -500 -10)
    (2000 -500 -10)
    (2000 500 -10)
    (-2000 500 -10)
    (-2000 -500 660)
    (2000 -500 660)
    (2000 500 660)
    (-2000 500 660)

);

blocks
(
    hex (0 1 2 3 4 5 6 7) (60 20 20) simpleGrading (1 1 1)
);

edges
(
);

boundary
(
    frontAndBack
    {
        type wall;
        faces
        (
            (3 7 6 2)
            (1 5 4 0)
        );
    }
    inlet
    {
        type patch;
        faces
        (
            (0 4 7 3)
        );
    }
    outlet
    {
        type patch;
        faces
        (
            (2 6 5 1)
        );
    }
    lowerWall
    {
        type wall;
        faces
        (
            (0 3 2 1)
        );
    }
    upperWall
    {
        type wall;
        faces
        (
            (4 5 6 7)
        );
    }
);

// ************************************************************************* //
