/*--------------------------------*- C++ -*----------------------------------*\
  =========                 |
  \\      /  F ield         | OpenFOAM: The Open Source CFD Toolbox
   \\    /   O peration     | Website:  https://openfoam.org
    \\  /    A nd           | Version:  9
     \\/     M anipulation  |
\*---------------------------------------------------------------------------*/
FoamFile
{
    format      ascii;
    class       featureEdgeMesh;
    location    "constant/triSurface";
    object      NACA2415_openfoam.eMesh;
}
// * * * * * * * * * * * * * * * * * * * * * * * * * * * * * * * * * * * * * //


// points:

70
(
(0.25025579 0.01390332 0)
(0.25025579 0.01390332 0.64999998)
(0.25025579 0.01468832 0.64999998)
(0.25025579 0.01468832 0)
(0.193776 0.0083144493 0.64999998)
(0.193776 0.0083144493 0)
(0.1288912 0.0028790529 0.64999998)
(0.1288912 0.0028790529 0)
(0.1198928 0.0022683199 0.64999998)
(0.1198928 0.0022683199 0)
(0.076690413 0.00025871579 0.64999998)
(0.076690413 0.00025871579 0)
(0.049660951 0.0001754882 0.64999998)
(0.049660951 0.0001754882 0)
(0.03038612 0.001396436 0.64999998)
(0.03038612 0.001396436 0)
(0.024277691 0.002188609 0.64999998)
(0.024277691 0.002188609 0)
(0.01334515 0.004511198 0.64999998)
(0.01334515 0.004511198 0)
(0.0091073317 0.0059600221 0.64999998)
(0.0091073317 0.0059600221 0)
(0.0054045492 0.0077549811 0.64999998)
(0.0054045492 0.0077549811 0)
(0.003295033 0.009225389 0.64999998)
(0.003295033 0.009225389 0)
(0.00203628 0.01043711 0.64999998)
(0.00203628 0.01043711 0)
(0.001317704 0.01138159 0.64999998)
(0.001317704 0.01138159 0)
(0.00079193292 0.01234215 0.64999998)
(0.00079193292 0.01234215 0)
(0.00042762709 0.0133603 0.64999998)
(0.00042762709 0.0133603 0)
(0.00025275041 0.0143268 0.64999998)
(0.00025275041 0.0143268 0)
(0.00023871761 0.01525265 0.64999998)
(0.00023871761 0.01525265 0)
(0.00038203091 0.0162639 0.64999998)
(0.00038203091 0.0162639 0)
(0.00073245983 0.0173894 0.64999998)
(0.00073245983 0.0173894 0)
(0.001282948 0.0184929 0.64999998)
(0.001282948 0.0184929 0)
(0.0021571941 0.019741479 0.64999998)
(0.0021571941 0.019741479 0)
(0.00352714 0.02121822 0.64999998)
(0.00352714 0.02121822 0)
(0.0058353208 0.023102989 0.64999998)
(0.0058353208 0.023102989 0)
(0.01028033 0.025785949 0.64999998)
(0.01028033 0.025785949 0)
(0.018994341 0.02944904 0.64999998)
(0.018994341 0.02944904 0)
(0.03119914 0.03287179 0.64999998)
(0.03119914 0.03287179 0)
(0.046776809 0.035624418 0.64999998)
(0.046776809 0.035624418 0)
(0.063434832 0.037236478 0.64999998)
(0.063434832 0.037236478 0)
(0.08518108 0.037827771 0.64999998)
(0.08518108 0.037827771 0)
(0.1094359 0.036929142 0.64999998)
(0.1094359 0.036929142 0)
(0.1445111 0.033728201 0.64999998)
(0.1445111 0.033728201 0)
(0.1804596 0.028729251 0.64999998)
(0.1804596 0.028729251 0)
(0.2206994 0.02134805 0.64999998)
(0.2206994 0.02134805 0)
)


// edges:

72
(
(0 1)
(1 4)
(5 0)
(4 6)
(7 5)
(6 8)
(9 7)
(8 10)
(11 9)
(10 12)
(13 11)
(12 14)
(15 13)
(14 16)
(17 15)
(16 18)
(19 17)
(18 20)
(21 19)
(20 22)
(23 21)
(22 24)
(25 23)
(24 26)
(27 25)
(26 28)
(29 27)
(28 30)
(31 29)
(30 32)
(33 31)
(32 34)
(35 33)
(34 36)
(37 35)
(36 38)
(39 37)
(38 40)
(41 39)
(40 42)
(43 41)
(42 44)
(45 43)
(44 46)
(47 45)
(46 48)
(49 47)
(48 50)
(51 49)
(50 52)
(53 51)
(52 54)
(55 53)
(54 56)
(57 55)
(56 58)
(59 57)
(58 60)
(61 59)
(60 62)
(63 61)
(62 64)
(65 63)
(64 66)
(67 65)
(66 68)
(69 67)
(68 2)
(2 3)
(3 69)
(2 1)
(0 3)
)

// * * * * * * * * * * * * * * * * * * * * * * * * * * * * * * * * * * * * * //


// ************************************************************************* //
