/*--------------------------------*- C++ -*----------------------------------*\
  =========                 |
  \\      /  F ield         | OpenFOAM: The Open Source CFD Toolbox
   \\    /   O peration     | Website:  https://openfoam.org
    \\  /    A nd           | Version:  9
     \\/     M anipulation  |
\*---------------------------------------------------------------------------*/
FoamFile
{
    format      ascii;
    class       extendedFeatureEdgeMesh;
    location    "constant/extendedFeatureEdgeMesh";
    object      NACA2415_openfoam.extendedFeatureEdgeMesh;
}
// * * * * * * * * * * * * * * * * * * * * * * * * * * * * * * * * * * * * * //

// points

70
(
(0.25025579 0.01390332 0)
(0.25025579 0.01390332 0.64999998)
(0.25025579 0.01468832 0.64999998)
(0.25025579 0.01468832 0)
(0.193776 0.0083144493 0.64999998)
(0.193776 0.0083144493 0)
(0.1288912 0.0028790529 0.64999998)
(0.1288912 0.0028790529 0)
(0.1198928 0.0022683199 0.64999998)
(0.1198928 0.0022683199 0)
(0.076690413 0.00025871579 0.64999998)
(0.076690413 0.00025871579 0)
(0.049660951 0.0001754882 0.64999998)
(0.049660951 0.0001754882 0)
(0.03038612 0.001396436 0.64999998)
(0.03038612 0.001396436 0)
(0.024277691 0.002188609 0.64999998)
(0.024277691 0.002188609 0)
(0.01334515 0.004511198 0.64999998)
(0.01334515 0.004511198 0)
(0.0091073317 0.0059600221 0.64999998)
(0.0091073317 0.0059600221 0)
(0.0054045492 0.0077549811 0.64999998)
(0.0054045492 0.0077549811 0)
(0.003295033 0.009225389 0.64999998)
(0.003295033 0.009225389 0)
(0.00203628 0.01043711 0.64999998)
(0.00203628 0.01043711 0)
(0.001317704 0.01138159 0.64999998)
(0.001317704 0.01138159 0)
(0.00079193292 0.01234215 0.64999998)
(0.00079193292 0.01234215 0)
(0.00042762709 0.0133603 0.64999998)
(0.00042762709 0.0133603 0)
(0.00025275041 0.0143268 0.64999998)
(0.00025275041 0.0143268 0)
(0.00023871761 0.01525265 0.64999998)
(0.00023871761 0.01525265 0)
(0.00038203091 0.0162639 0.64999998)
(0.00038203091 0.0162639 0)
(0.00073245983 0.0173894 0.64999998)
(0.00073245983 0.0173894 0)
(0.001282948 0.0184929 0.64999998)
(0.001282948 0.0184929 0)
(0.0021571941 0.019741479 0.64999998)
(0.0021571941 0.019741479 0)
(0.00352714 0.02121822 0.64999998)
(0.00352714 0.02121822 0)
(0.0058353208 0.023102989 0.64999998)
(0.0058353208 0.023102989 0)
(0.01028033 0.025785949 0.64999998)
(0.01028033 0.025785949 0)
(0.018994341 0.02944904 0.64999998)
(0.018994341 0.02944904 0)
(0.03119914 0.03287179 0.64999998)
(0.03119914 0.03287179 0)
(0.046776809 0.035624418 0.64999998)
(0.046776809 0.035624418 0)
(0.063434832 0.037236478 0.64999998)
(0.063434832 0.037236478 0)
(0.08518108 0.037827771 0.64999998)
(0.08518108 0.037827771 0)
(0.1094359 0.036929142 0.64999998)
(0.1094359 0.036929142 0)
(0.1445111 0.033728201 0.64999998)
(0.1445111 0.033728201 0)
(0.1804596 0.028729251 0.64999998)
(0.1804596 0.028729251 0)
(0.2206994 0.02134805 0.64999998)
(0.2206994 0.02134805 0)
)

// edges

72
(
(0 1)
(1 4)
(5 0)
(4 6)
(7 5)
(6 8)
(9 7)
(8 10)
(11 9)
(10 12)
(13 11)
(12 14)
(15 13)
(14 16)
(17 15)
(16 18)
(19 17)
(18 20)
(21 19)
(20 22)
(23 21)
(22 24)
(25 23)
(24 26)
(27 25)
(26 28)
(29 27)
(28 30)
(31 29)
(30 32)
(33 31)
(32 34)
(35 33)
(34 36)
(37 35)
(36 38)
(39 37)
(38 40)
(41 39)
(40 42)
(43 41)
(42 44)
(45 43)
(44 46)
(47 45)
(46 48)
(49 47)
(48 50)
(51 49)
(50 52)
(53 51)
(52 54)
(55 53)
(54 56)
(57 55)
(56 58)
(59 57)
(58 60)
(61 59)
(60 62)
(63 61)
(62 64)
(65 63)
(64 66)
(67 65)
(66 68)
(69 67)
(68 2)
(2 3)
(3 69)
(2 1)
(0 3)
)

// concaveStart mixedStart nonFeatureStart
4 4 4
// internalStart flatStart openStart multipleStart
72 72 72 72
// normals

136
(
(0.098472509 -0.99513977 0)
(1 -0 0)
(0 0 1)
(0.098472509 -0.99513977 0)
(0 -0 -1)
(0.083477568 -0.99650966 0)
(0 0 1)
(0.083477568 -0.99650966 0)
(0 0 -1)
(0.067715484 -0.99770467 0)
(0 -0 1)
(0.067715484 -0.99770467 0)
(0 0 -1)
(0.046465803 -0.99891988 0)
(0 0 1)
(0.046465803 -0.99891988 0)
(0 0 -1)
(0.0030791291 -0.99999526 0)
(0 0 1)
(0.0030791291 -0.99999526 0)
(0 0 -1)
(-0.06321745 -0.99799978 0)
(0 0 1)
(-0.06321745 -0.99799978 0)
(0 0 -1)
(-0.12860824 -0.99169548 0)
(0 -0 1)
(-0.12860824 -0.99169548 0)
(0 0 -1)
(-0.20780946 -0.97816932 0)
(0 -0 1)
(-0.20780946 -0.97816932 0)
(0 0 -1)
(-0.32349659 -0.94622934 0)
(0 -0 1)
(-0.32349659 -0.94622934 0)
(0 0 -1)
(-0.43620866 -0.89984555 0)
(0 0 1)
(-0.43620866 -0.89984555 0)
(0 0 -1)
(-0.57182907 -0.82037279 0)
(0 0 1)
(-0.57182907 -0.82037279 0)
(0 0 -1)
(-0.6935196 -0.72043776 0)
(0 0 1)
(-0.6935196 -0.72043776 0)
(0 0 -1)
(-0.79584883 -0.60549537 0)
(0 0 1)
(-0.79584883 -0.60549537 0)
(0 0 -1)
(-0.8771925 -0.48013886 0)
(0 0 1)
(-0.8771925 -0.48013886 0)
(0 0 -1)
(-0.9415423 -0.33689478 0)
(0 0 1)
(-0.9415423 -0.33689478 0)
(0 0 -1)
(-0.98402196 -0.17804715 0)
(-0.98402196 -0.17804715 0)
(-0.99988516 -0.015154929 0)
(0 0 1)
(-0.99988516 -0.015154929 0)
(0 0 -1)
(-0.99010666 0.14031681 0)
(0 0 1)
(-0.99010666 0.14031681 0)
(0 0 -1)
(-0.95479094 0.29727808 0)
(0 0 1)
(-0.95479094 0.29727808 0)
(0 0 -1)
(-0.89483611 0.44639483 0)
(-0 0 1)
(-0.89483611 0.44639483 0)
(0 -0 -1)
(-0.81915779 0.57356823 0)
(0 0 1)
(-0.81915779 0.57356823 0)
(0 -0 -1)
(-0.73311845 0.68010098 0)
(0 0 1)
(-0.73311845 0.68010098 0)
(0 0 -1)
(-0.63248532 0.77457235 0)
(0 0 1)
(-0.63248532 0.77457235 0)
(0 0 -1)
(-0.51675345 0.85613426 0)
(0 -0 1)
(-0.51675345 0.85613426 0)
(0 0 -1)
(-0.38752081 0.92186096 0)
(0 0 1)
(-0.38752081 0.92186096 0)
(0 0 -1)
(-0.2700254 0.9628532 0)
(0 0 1)
(-0.2700254 0.9628532 0)
(0 0 -1)
(-0.17400774 0.98474428 0)
(0 0 1)
(-0.17400774 0.98474428 0)
(0 0 -1)
(-0.096323782 0.99535005 0)
(0 -0 1)
(-0.096323782 0.99535005 0)
(0 0 -1)
(-0.027180529 0.99963054 0)
(0 -0 1)
(-0.027180529 0.99963054 0)
(0 0 -1)
(0.037024115 0.99931437 -0)
(0 0 1)
(0.037024115 0.99931437 0)
(0 0 -1)
(0.090881708 0.99586169 -0)
(0 -0 1)
(0.090881708 0.99586169 0)
(0 0 -1)
(0.13773334 0.99046935 -0)
(0 0 1)
(0.13773334 0.99046935 0)
(0 0 -1)
(0.18042021 0.98358962 -0)
(0 -0 1)
(0.18042021 0.98358962 0)
(0 0 -1)
(0.21981192 0.97554227 -0)
(0 0 1)
(0.21981192 0.97554227 0)
(1 0 0)
(-0 -0 -1)
)

// normal volume types

136
(
0
0
0
0
0
0
0
0
0
0
0
0
0
0
0
0
0
0
0
0
0
0
0
0
0
0
0
0
0
0
0
0
0
0
0
0
0
0
0
0
0
0
0
0
0
0
0
0
0
0
0
0
0
0
0
0
0
0
0
0
0
0
0
0
0
0
0
0
0
0
0
0
0
0
0
0
0
0
0
0
0
0
0
0
0
0
0
0
0
0
0
0
0
0
0
0
0
0
0
0
0
0
0
0
0
0
0
0
0
0
0
0
0
0
0
0
0
0
0
0
0
0
0
0
0
0
0
0
0
0
0
0
0
0
0
0
)

// normalDirections

72
(
2(1 -1)
2(1 -1)
2(1 -1)
2(1 -1)
2(1 -1)
2(1 -1)
2(1 -1)
2(1 -1)
2(1 -1)
2(1 -1)
2(1 -1)
2(1 -1)
2(1 -1)
2(1 -1)
2(1 -1)
2(1 -1)
2(1 -1)
2(1 -1)
2(1 -1)
2(1 -1)
2(1 -1)
2(1 -1)
2(1 -1)
2(1 -1)
2(1 -1)
2(1 -1)
2(1 -1)
2(1 -1)
2(1 -1)
2(1 -1)
2(1 -1)
2(1 -1)
2(1 -1)
2(1 -1)
2(1 -1)
2(1 -1)
2(1 -1)
2(1 -1)
2(1 -1)
2(1 -1)
2(1 -1)
2(1 -1)
2(1 -1)
2(1 -1)
2(1 -1)
2(1 -1)
2(1 -1)
2(1 -1)
2(1 -1)
2(1 -1)
2(1 -1)
2(1 -1)
2(1 -1)
2(1 -1)
2(1 -1)
2(1 -1)
2(1 -1)
2(1 -1)
2(1 -1)
2(1 -1)
2(1 -1)
2(1 -1)
2(1 -1)
2(1 -1)
2(1 -1)
2(1 -1)
2(1 -1)
2(1 -1)
2(1 -1)
2(1 -1)
2(1 -1)
2(1 -1)
)

// edgeNormals

72
(
2(0 1)
2(0 2)
2(3 4)
2(5 6)
2(7 8)
2(9 10)
2(11 12)
2(13 14)
2(15 16)
2(17 18)
2(19 20)
2(21 22)
2(23 24)
2(25 26)
2(27 28)
2(29 30)
2(31 32)
2(33 34)
2(35 36)
2(37 38)
2(39 40)
2(41 42)
2(43 44)
2(45 46)
2(47 48)
2(49 50)
2(51 52)
2(53 54)
2(55 56)
2(57 58)
2(59 60)
2(61 58)
2(62 60)
2(63 64)
2(65 66)
2(67 68)
2(69 70)
2(71 72)
2(73 74)
2(75 76)
2(77 78)
2(79 80)
2(81 82)
2(83 84)
2(85 86)
2(87 88)
2(89 90)
2(91 92)
2(93 94)
2(95 96)
2(97 98)
2(99 100)
2(101 102)
2(103 104)
2(105 106)
2(107 108)
2(109 110)
2(111 112)
2(113 114)
2(115 116)
2(117 118)
2(119 120)
2(121 122)
2(123 124)
2(125 126)
2(127 128)
2(129 130)
2(131 132)
2(133 134)
2(133 135)
2(1 2)
2(134 135)
)

// featurePointNormals

4
(
3(0 1 4)
3(0 1 2)
3(131 132 134)
3(133 134 135)
)

// featurePointEdges

4
(
3(2 71 0)
3(0 70 1)
3(68 70 67)
3(68 71 69)
)

// regionEdges
0()


// ************************************************************************* //
